Version 4
SHEET 1 1672 680
WIRE 1152 -848 512 -848
WIRE 512 -800 512 -848
WIRE 512 -672 512 -720
WIRE 800 -672 512 -672
WIRE 912 -672 864 -672
WIRE 1152 -640 1152 -848
WIRE 512 -608 512 -672
WIRE 576 -608 512 -608
WIRE 688 -608 656 -608
WIRE 1152 -544 1152 -560
WIRE 512 -528 512 -608
WIRE 688 -480 688 -608
WIRE 688 -480 576 -480
WIRE 80 -400 80 -432
WIRE 80 -400 32 -400
WIRE 160 -400 80 -400
WIRE 368 -400 240 -400
WIRE 512 -400 512 -432
WIRE 512 -400 432 -400
WIRE 512 -368 512 -400
WIRE 688 -368 688 -480
WIRE 32 -336 32 -400
WIRE 512 -240 512 -288
WIRE 608 -240 512 -240
WIRE 688 -240 688 -304
WIRE 688 -240 608 -240
WIRE 608 -224 608 -240
WIRE 32 -192 32 -256
FLAG 1152 -544 0
FLAG 608 -224 0
FLAG 912 -672 Out1
IOPIN 912 -672 Out
FLAG 32 -192 0
FLAG 80 -432 In
IOPIN 80 -432 In
SYMBOL voltage 1152 -544 R180
WINDOW 123 0 0 Left 2
WINDOW 39 24 -12 Left 2
SYMATTR SpiceLine Rser=2
SYMATTR InstName V2
SYMATTR Value 8V
SYMBOL pnp 576 -528 M0
SYMATTR InstName Q5
SYMATTR Value mp41
SYMBOL voltage 32 -352 R0
WINDOW 39 -112 95 Left 2
WINDOW 3 -213 62 Left 2
WINDOW 0 -51 -9 Left 2
SYMATTR Value SINE(0 .05V 1000)
SYMATTR InstName V3
SYMATTR Value2 AC 1
SYMBOL cap 704 -368 M0
SYMATTR InstName C2
SYMATTR Value 100µ
SYMBOL res 496 -816 R0
SYMATTR InstName R9
SYMATTR Value 10K
SYMBOL res 496 -384 R0
SYMATTR InstName R10
SYMATTR Value 1K
SYMBOL cap 432 -416 R90
WINDOW 0 0 32 VBottom 2
WINDOW 3 32 32 VTop 2
SYMATTR InstName C3
SYMATTR Value 100µF
SYMBOL res 672 -624 R90
WINDOW 0 0 56 VBottom 2
WINDOW 3 32 56 VTop 2
SYMATTR InstName R12
SYMATTR Value 220K
SYMBOL cap 864 -688 R90
WINDOW 0 0 32 VBottom 2
WINDOW 3 32 32 VTop 2
SYMATTR InstName C4
SYMATTR Value 10µF
SYMBOL res 256 -416 R90
WINDOW 0 0 56 VBottom 2
WINDOW 3 32 56 VTop 2
SYMATTR InstName R1
SYMATTR Value 4K
TEXT 200 -144 Left 2 !.tran 0 1 0.98
TEXT 200 -184 Left 2 !.inc potentiometer.sub
